* NGSPICE file created from uProcessor.ext - technology: scmos

* Black-box entry subcircuit for INVX1 abstract view
.subckt INVX1 A gnd Y vdd
.ends

* Black-box entry subcircuit for BUFX2 abstract view
.subckt BUFX2 A gnd Y vdd
.ends

* Black-box entry subcircuit for NAND3X1 abstract view
.subckt NAND3X1 A B C gnd Y vdd
.ends

* Black-box entry subcircuit for OAI21X1 abstract view
.subckt OAI21X1 A B C gnd Y vdd
.ends

* Black-box entry subcircuit for NAND2X1 abstract view
.subckt NAND2X1 A B gnd Y vdd
.ends

* Black-box entry subcircuit for FILL abstract view
.subckt FILL gnd vdd
.ends

* Black-box entry subcircuit for MUX2X1 abstract view
.subckt MUX2X1 A B S gnd Y vdd
.ends

* Black-box entry subcircuit for AOI22X1 abstract view
.subckt AOI22X1 A B C D gnd Y vdd
.ends

* Black-box entry subcircuit for NOR2X1 abstract view
.subckt NOR2X1 A B gnd Y vdd
.ends

* Black-box entry subcircuit for DFFPOSX1 abstract view
.subckt DFFPOSX1 Q CLK D gnd vdd
.ends

* Black-box entry subcircuit for XOR2X1 abstract view
.subckt XOR2X1 A B gnd Y vdd
.ends

* Black-box entry subcircuit for AOI21X1 abstract view
.subckt AOI21X1 A B C gnd Y vdd
.ends

* Black-box entry subcircuit for XNOR2X1 abstract view
.subckt XNOR2X1 A B gnd Y vdd
.ends

* Black-box entry subcircuit for INVX4 abstract view
.subckt INVX4 A gnd Y vdd
.ends

* Black-box entry subcircuit for OR2X2 abstract view
.subckt OR2X2 A B gnd Y vdd
.ends

* Black-box entry subcircuit for AND2X2 abstract view
.subckt AND2X2 A B gnd Y vdd
.ends

* Black-box entry subcircuit for NOR3X1 abstract view
.subckt NOR3X1 A B C gnd Y vdd
.ends

* Black-box entry subcircuit for OAI22X1 abstract view
.subckt OAI22X1 A B C D gnd Y vdd
.ends

* Black-box entry subcircuit for CLKBUF1 abstract view
.subckt CLKBUF1 A gnd Y vdd
.ends

* Black-box entry subcircuit for INVX2 abstract view
.subckt INVX2 A gnd Y vdd
.ends

* Black-box entry subcircuit for INVX8 abstract view
.subckt INVX8 A gnd Y vdd
.ends

.subckt uProcessor gnd vdd adrs_bus[15] adrs_bus[14] adrs_bus[13] adrs_bus[12] adrs_bus[11]
+ adrs_bus[10] adrs_bus[9] adrs_bus[8] adrs_bus[7] adrs_bus[6] adrs_bus[5] adrs_bus[4]
+ adrs_bus[3] adrs_bus[2] adrs_bus[1] adrs_bus[0] clock data_in[15] data_in[14] data_in[13]
+ data_in[12] data_in[11] data_in[10] data_in[9] data_in[8] data_in[7] data_in[6]
+ data_in[5] data_in[4] data_in[3] data_in[2] data_in[1] data_in[0] data_out[15] data_out[14]
+ data_out[13] data_out[12] data_out[11] data_out[10] data_out[9] data_out[8] data_out[7]
+ data_out[6] data_out[5] data_out[4] data_out[3] data_out[2] data_out[1] data_out[0]
+ mem_rd mem_wr reset
X_3155_ gnd gnd _3155_/Y vdd INVX1
X_2106_ _2891_/A gnd data_out[4] vdd BUFX2
X_3086_ gnd _3164_/B _3164_/C gnd _3087_/A vdd NAND3X1
X_3988_ _4166_/A _3920_/S _3988_/C gnd _3989_/A vdd OAI21X1
X_2939_ _2339_/Y gnd _2939_/Y vdd INVX1
X_4609_ _4612_/A _4195_/A gnd _4610_/C vdd NAND2X1
XSFILL44400x26100 gnd vdd FILL
XSFILL29680x100 gnd vdd FILL
XFILL71120x28100 gnd vdd FILL
X_3842_ _4297_/Q _3846_/B gnd _3842_/Y vdd NAND2X1
X_3911_ _4408_/Q _4392_/Q _3992_/B gnd _3914_/D vdd MUX2X1
X_2655_ _2593_/Y _2623_/Y _2650_/C _2655_/D gnd _2987_/B vdd AOI22X1
X_2724_ _2693_/B _2724_/B gnd _2727_/C vdd NOR2X1
X_3773_ _3773_/A _3775_/B gnd _3773_/Y vdd NAND2X1
X_4256_ _4423_/Q _4407_/Q _4252_/S gnd _4259_/D vdd MUX2X1
X_2586_ _2782_/A gnd _2586_/Y vdd INVX1
X_4187_ _4187_/A _4198_/B gnd _4187_/Y vdd NOR2X1
X_4325_ _4232_/A _4407_/CLK _4325_/D gnd vdd DFFPOSX1
XSFILL59440x42100 gnd vdd FILL
X_3207_ gnd gnd _3208_/C vdd INVX1
X_3069_ _2343_/Y gnd _3069_/Y vdd INVX1
X_3138_ gnd _3164_/B _3164_/C gnd _3139_/A vdd NAND3X1
XBUFX2_insert100 _4455_/Q gnd _2560_/B vdd BUFX2
XBUFX2_insert122 _3642_/Q gnd _4243_/C vdd BUFX2
XBUFX2_insert111 _2953_/Y gnd _3194_/C vdd BUFX2
XBUFX2_insert133 _3421_/Q gnd _3589_/A vdd BUFX2
XBUFX2_insert166 _4263_/Y gnd _4292_/B vdd BUFX2
XBUFX2_insert199 _3409_/Y gnd _2151_/A vdd BUFX2
XBUFX2_insert188 _4426_/Q gnd _2614_/C vdd BUFX2
X_2440_ _2440_/A _2443_/B gnd _2441_/A vdd NAND2X1
XBUFX2_insert155 _4444_/Q gnd _2193_/B vdd BUFX2
XBUFX2_insert177 _3625_/Q gnd _3562_/A vdd BUFX2
XBUFX2_insert144 _3649_/Y gnd _3706_/A vdd BUFX2
X_4041_ _4041_/A _4041_/B _4036_/B gnd _4041_/Y vdd MUX2X1
X_4110_ _3932_/A _4158_/B gnd _4112_/B vdd NOR2X1
X_2371_ _2371_/A _2136_/B gnd _2371_/Y vdd XOR2X1
X_3756_ _4281_/A _3767_/B _3755_/Y gnd _3756_/Y vdd OAI21X1
X_3825_ _4283_/A _3824_/B _3825_/C gnd _3825_/Y vdd AOI21X1
X_2638_ _2779_/B _2636_/Y gnd _2642_/B vdd NOR2X1
X_2569_ _2569_/A _2659_/A gnd _2573_/C vdd XNOR2X1
X_3687_ _3517_/Y gnd _3764_/A vdd INVX4
X_2707_ _2706_/B gnd _2717_/B vdd INVX1
X_4239_ _4239_/A _4240_/B _4239_/C gnd _4239_/Y vdd OAI21X1
X_4308_ _4046_/A _4298_/CLK _4308_/D gnd vdd DFFPOSX1
XSFILL29360x36100 gnd vdd FILL
X_3610_ _3557_/B _3574_/B gnd _3610_/Y vdd NAND2X1
X_4590_ _3546_/Y gnd _4592_/B vdd INVX1
X_2423_ _4061_/A _2665_/A gnd _2427_/B vdd NAND2X1
X_3472_ data_in[6] gnd _3472_/Y vdd INVX1
X_3541_ _3556_/B gnd _3541_/Y vdd INVX1
X_4024_ _4024_/A _4020_/B gnd _4024_/Y vdd NOR2X1
X_2285_ _2272_/B _2284_/Y _2282_/Y gnd _2289_/A vdd NAND3X1
X_2354_ _2560_/B _2283_/A gnd _3355_/A vdd OR2X2
XBUFX2_insert0 _4453_/Q gnd _4061_/A vdd BUFX2
X_3739_ _4312_/Q _3740_/B gnd _3739_/Y vdd NAND2X1
XSFILL14800x16100 gnd vdd FILL
X_3808_ _4377_/Q _3809_/B gnd _3808_/Y vdd NOR2X1
XSFILL29680x4100 gnd vdd FILL
XSFILL44400x34100 gnd vdd FILL
X_2972_ _2986_/A _2986_/B gnd _2972_/Y vdd AND2X2
X_4573_ _2138_/A _4436_/CLK _4518_/Y gnd vdd DFFPOSX1
X_3524_ _3524_/A _3523_/Y gnd _3524_/Y vdd NAND2X1
X_3386_ _3400_/C _3391_/A _3388_/A gnd _3410_/B vdd OAI21X1
X_3455_ _3434_/A _4593_/A gnd _3455_/Y vdd NAND2X1
X_2406_ _2406_/A _4588_/B gnd _2406_/Y vdd XNOR2X1
XSFILL59440x50100 gnd vdd FILL
X_4007_ _4005_/Y _4040_/B _4006_/Y gnd _4007_/Y vdd AOI21X1
X_2268_ _2268_/A _2266_/Y _2268_/C gnd _2268_/Y vdd OAI21X1
X_2337_ _2560_/B _2283_/A gnd _2337_/Y vdd AND2X2
X_2199_ _2199_/A _2199_/B gnd _2199_/Y vdd NAND2X1
XSFILL59920x28100 gnd vdd FILL
X_3240_ _2323_/Y _3240_/B _3292_/C gnd _3240_/Y vdd NAND3X1
XSFILL14320x28100 gnd vdd FILL
X_3171_ _3166_/Y _3171_/B gnd _3171_/Y vdd NOR2X1
X_2122_ _2124_/A _2122_/B _2121_/Y gnd _2088_/A vdd OAI21X1
X_2955_ _2969_/B _3324_/C gnd _3204_/B vdd NAND2X1
X_4556_ _4558_/B _4625_/Y _4556_/C _4556_/D gnd _4556_/Y vdd AOI22X1
X_4625_ _4621_/A _4623_/Y _4625_/C gnd _4625_/Y vdd OAI21X1
X_2886_ _2190_/A gnd _2914_/A vdd INVX1
X_3507_ data_in[11] gnd _3507_/Y vdd INVX1
X_3369_ gnd _3343_/B gnd _3369_/Y vdd NAND2X1
X_4487_ _4486_/B gnd _4488_/C vdd INVX1
X_3438_ _3437_/Y _3508_/B _3508_/C gnd _3438_/Y vdd NAND3X1
XSFILL29360x44100 gnd vdd FILL
X_2671_ _2671_/A _2662_/Y _2671_/C gnd _2671_/Y vdd NOR3X1
X_2740_ _2671_/A gnd _2740_/Y vdd INVX1
X_4410_ _3935_/A _4394_/CLK _4269_/Y gnd vdd DFFPOSX1
X_4341_ _4341_/Q _4407_/CLK _3900_/Y gnd vdd DFFPOSX1
X_3223_ _3223_/A _3223_/B gnd _3223_/Y vdd NOR2X1
X_4272_ _4412_/Q _4269_/B gnd _4273_/C vdd NOR2X1
X_3154_ gnd gnd _3156_/A vdd INVX1
X_2105_ _2706_/B gnd data_out[3] vdd BUFX2
X_3085_ _3085_/A _3007_/B _3032_/B gnd _3085_/Y vdd NAND3X1
X_2938_ _2938_/A _2938_/B gnd _2978_/A vdd NAND2X1
X_3987_ _4367_/Q _3921_/B gnd _3989_/B vdd NOR2X1
XSFILL14800x24100 gnd vdd FILL
X_2869_ _2869_/A _2869_/B _2864_/Y gnd _2870_/A vdd NAND3X1
X_4539_ _2150_/A gnd _4540_/B vdd INVX1
X_4608_ _3490_/B gnd _4608_/Y vdd INVX1
XSFILL28880x32100 gnd vdd FILL
XFILL71120x44100 gnd vdd FILL
X_2723_ _2723_/A _2723_/B _2722_/Y gnd _2723_/Y vdd OAI21X1
X_3910_ _3909_/Y _3910_/B _3909_/C _3906_/Y gnd _3915_/B vdd OAI22X1
X_3772_ _3805_/B _3703_/Y gnd _3772_/Y vdd NAND2X1
X_3841_ _3740_/A _3846_/B _3840_/Y gnd _4296_/D vdd OAI21X1
X_2585_ _2318_/B _2584_/Y gnd _2590_/A vdd NAND2X1
X_2654_ _2573_/C _2653_/Y gnd _2655_/D vdd NAND2X1
X_4324_ _4221_/A _4298_/CLK _3764_/Y gnd vdd DFFPOSX1
X_4255_ _4254_/Y _4255_/B _4254_/C _4255_/D gnd _4260_/B vdd OAI22X1
X_4186_ _4186_/A _4186_/B _4245_/S gnd _4186_/Y vdd MUX2X1
X_3206_ gnd gnd _3208_/A vdd INVX1
X_3137_ _2202_/Y _2977_/B _3032_/B gnd _3137_/Y vdd NAND3X1
X_3068_ _3049_/Y _3068_/B _3068_/C gnd _3068_/Y vdd NAND3X1
XSFILL59920x36100 gnd vdd FILL
XSFILL44880x14100 gnd vdd FILL
XBUFX2_insert167 _4263_/Y gnd _4283_/B vdd BUFX2
XBUFX2_insert101 _4455_/Q gnd _2569_/A vdd BUFX2
XBUFX2_insert145 _3649_/Y gnd _3732_/A vdd BUFX2
XBUFX2_insert112 _2953_/Y gnd _3324_/C vdd BUFX2
XBUFX2_insert123 _3563_/Y gnd _3570_/C vdd BUFX2
XBUFX2_insert156 _4444_/Q gnd _2891_/A vdd BUFX2
XBUFX2_insert134 _3421_/Q gnd _3564_/A vdd BUFX2
XBUFX2_insert178 _3625_/Q gnd _4612_/A vdd BUFX2
XBUFX2_insert189 _4426_/Q gnd _2896_/A vdd BUFX2
X_4040_ _4038_/Y _4040_/B _4039_/Y gnd _4040_/Y vdd AOI21X1
X_2370_ _2560_/B _2283_/A gnd _3375_/A vdd AND2X2
XSFILL14320x36100 gnd vdd FILL
X_3755_ _4320_/Q _3767_/B gnd _3755_/Y vdd NAND2X1
X_3824_ _4186_/B _3824_/B gnd _3825_/C vdd NOR2X1
X_3686_ _3729_/A _3685_/B _3686_/C gnd _4403_/D vdd AOI21X1
X_2706_ _2706_/A _2706_/B _2896_/A _2706_/D gnd _2706_/Y vdd AOI22X1
X_2637_ _2636_/Y _2779_/B _2637_/C _2673_/A gnd _2637_/Y vdd AOI22X1
X_2499_ _2497_/Y gnd _2500_/A vdd INVX1
X_2568_ _2659_/A _2567_/Y gnd _2650_/C vdd NAND2X1
X_4307_ _3862_/A _4373_/CLK _3863_/Y gnd vdd DFFPOSX1
X_4238_ _4238_/A _4233_/Y _4205_/S gnd _4238_/Y vdd MUX2X1
X_4169_ _3854_/A _4088_/B gnd _4171_/B vdd NOR2X1
X_3540_ _3561_/A _3540_/B gnd _3422_/A vdd NOR2X1
X_2422_ _2420_/Y _2422_/B gnd _2431_/B vdd NAND2X1
X_2353_ _2661_/A _2571_/B gnd _2353_/Y vdd OR2X2
X_3471_ _3513_/A _3513_/B _3470_/Y gnd _3474_/C vdd OAI21X1
X_4023_ _4418_/Q _3682_/A _4074_/S gnd _4026_/D vdd MUX2X1
X_2284_ _2288_/A gnd _2284_/Y vdd INVX1
XBUFX2_insert1 _4453_/Q gnd _2331_/A vdd BUFX2
XSFILL29520x12100 gnd vdd FILL
XSFILL59440x48100 gnd vdd FILL
X_3807_ _3740_/A _3809_/B _3807_/C gnd _3807_/Y vdd AOI21X1
X_3669_ _3475_/Y gnd _3752_/A vdd INVX4
X_3738_ _3704_/A _3651_/A gnd _3738_/Y vdd NAND2X1
X_2971_ _2971_/A _2970_/Y gnd _2990_/B vdd NOR2X1
X_4572_ _2135_/A _4436_/CLK _4511_/Y gnd vdd DFFPOSX1
X_3523_ _3495_/A _3522_/Y _3520_/Y gnd _3523_/Y vdd NAND3X1
X_2336_ _2560_/B _2283_/A gnd _2336_/Y vdd NOR2X1
X_3385_ _2965_/A _2965_/B gnd _3388_/A vdd NOR2X1
X_2405_ _2377_/A _4591_/B gnd _2407_/A vdd XNOR2X1
X_3454_ _3454_/A _3453_/Y gnd _3454_/Y vdd NAND2X1
X_4006_ _2110_/A _4040_/B _4206_/C gnd _4006_/Y vdd OAI21X1
X_2267_ _2574_/A _2101_/A _2256_/Y gnd _2268_/C vdd OAI21X1
X_2198_ _2198_/A _2194_/Y gnd _2199_/B vdd NOR2X1
XSFILL44880x22100 gnd vdd FILL
XSFILL14000x100 gnd vdd FILL
X_3170_ _3168_/Y _3170_/B _3169_/Y gnd _3171_/B vdd NAND3X1
X_2121_ _2124_/A _4588_/B gnd _2121_/Y vdd NAND2X1
XSFILL14320x44100 gnd vdd FILL
XCLKBUF1_insert30 clock gnd _4297_/CLK vdd CLKBUF1
X_2954_ _3324_/C _2946_/Y gnd _3204_/D vdd NAND2X1
XSFILL29520x4100 gnd vdd FILL
X_2885_ _2885_/A _2885_/B gnd _2919_/B vdd NAND2X1
X_4624_ _4621_/A _4250_/A gnd _4625_/C vdd NAND2X1
X_4555_ _4548_/C _4560_/B _4555_/C gnd _4555_/Y vdd NAND3X1
X_4486_ _4486_/A _4486_/B _4485_/Y gnd _4486_/Y vdd OAI21X1
X_3506_ _3513_/A _3513_/B _3506_/C gnd _3509_/C vdd OAI21X1
X_2319_ _2830_/B _2318_/B gnd _2320_/B vdd AND2X2
X_3299_ _3143_/A gnd gnd _3143_/D gnd _3299_/Y vdd AOI22X1
X_3368_ _3368_/A _3367_/Y gnd _3368_/Y vdd NOR2X1
X_3437_ data_in[1] gnd _3437_/Y vdd INVX1
X_2670_ _2670_/A _2670_/B _2669_/Y gnd _2671_/C vdd NAND3X1
X_4340_ _3897_/A _4298_/CLK _3898_/Y gnd vdd DFFPOSX1
X_3222_ _3220_/Y _3222_/B _3221_/Y gnd _3223_/B vdd NAND3X1
X_4271_ _3813_/A _4287_/B _4271_/C gnd _4411_/D vdd AOI21X1
X_2104_ _2104_/A gnd data_out[2] vdd BUFX2
X_3153_ _3152_/Y _3153_/B gnd _3153_/Y vdd NOR2X1
X_3084_ _2305_/Y _3090_/B _3110_/C gnd _3084_/Y vdd NAND3X1
X_2868_ _4206_/A _2868_/B gnd _2869_/B vdd NAND2X1
X_2937_ _2861_/Y _2937_/B _2936_/Y gnd _2938_/A vdd NAND3X1
X_4607_ _4612_/A _4605_/Y _4607_/C gnd _4517_/B vdd OAI21X1
X_3986_ _4351_/Q _3820_/A _3920_/S gnd _3989_/D vdd MUX2X1
X_4538_ _4538_/A _4228_/C gnd _4576_/D vdd AND2X2
X_4469_ _4469_/A _4467_/Y _4548_/C gnd _4469_/Y vdd NAND3X1
X_2799_ _2799_/A gnd _2801_/B vdd INVX1
XSFILL43440x50100 gnd vdd FILL
XSFILL14640x2100 gnd vdd FILL
XSFILL59600x16100 gnd vdd FILL
X_2722_ _2890_/A _2699_/B _2722_/C _2913_/D gnd _2722_/Y vdd OAI22X1
X_3771_ _3771_/A _3771_/B gnd _3805_/B vdd NOR2X1
X_3840_ _3840_/A _3846_/B gnd _3840_/Y vdd NAND2X1
X_2584_ _2830_/B gnd _2584_/Y vdd INVX1
X_2653_ _2592_/Y _2635_/Y _2653_/C gnd _2653_/Y vdd OAI21X1
X_4323_ _4032_/A _4373_/CLK _4323_/D gnd vdd DFFPOSX1
X_4254_ _4327_/Q _4199_/B _4254_/C gnd _4254_/Y vdd OAI21X1
X_4185_ _4183_/Y _4240_/B _4184_/Y gnd _4432_/D vdd AOI21X1
X_3205_ _3204_/Y _3205_/B gnd _3224_/A vdd NOR2X1
X_3067_ _3067_/A _3067_/B gnd _3068_/C vdd NOR2X1
X_3136_ _2311_/Y _3090_/B _3110_/C gnd _3140_/B vdd NAND3X1
X_3969_ _3969_/A _3921_/B gnd _3969_/Y vdd NOR2X1
XBUFX2_insert102 _4455_/Q gnd _2848_/A vdd BUFX2
XBUFX2_insert146 _3649_/Y gnd _3726_/A vdd BUFX2
XBUFX2_insert124 _3563_/Y gnd _3615_/C vdd BUFX2
XBUFX2_insert168 _4441_/Q gnd _2442_/A vdd BUFX2
XBUFX2_insert157 _4444_/Q gnd _2465_/B vdd BUFX2
XBUFX2_insert135 _3917_/Y gnd _3951_/B vdd BUFX2
XBUFX2_insert179 _3625_/Q gnd _4594_/A vdd BUFX2
XBUFX2_insert113 _2953_/Y gnd _3116_/C vdd BUFX2
XSFILL29040x32100 gnd vdd FILL
X_3823_ _4281_/A _3823_/B _3822_/Y gnd _3823_/Y vdd AOI21X1
XSFILL14320x52100 gnd vdd FILL
X_2636_ _2862_/A gnd _2636_/Y vdd INVX1
X_3685_ _4212_/B _3685_/B gnd _3686_/C vdd NOR2X1
X_2705_ _2899_/A gnd _2706_/D vdd INVX1
X_3754_ _3788_/A _3754_/B _3753_/Y gnd _3754_/Y vdd OAI21X1
X_4306_ _4024_/A _4417_/CLK _4306_/D gnd vdd DFFPOSX1
X_4237_ _4237_/A _4235_/Y _4199_/C _4237_/D gnd _4238_/A vdd OAI22X1
X_2567_ _2569_/A gnd _2567_/Y vdd INVX1
X_2498_ _2500_/B _2497_/Y gnd _3176_/A vdd XNOR2X1
X_4168_ _4415_/Q _3673_/A _4166_/B gnd _4171_/D vdd MUX2X1
X_3119_ _3114_/Y _3119_/B gnd _3120_/C vdd NOR2X1
X_4099_ _3921_/A _4158_/B gnd _4101_/B vdd NOR2X1
XSFILL44400x48100 gnd vdd FILL
X_2283_ _2283_/A _2560_/B gnd _2288_/A vdd XNOR2X1
X_2421_ _2421_/A _2421_/B gnd _2422_/B vdd XNOR2X1
X_2352_ _2331_/A _2330_/B gnd _3303_/A vdd OR2X2
X_3470_ _3146_/Y gnd _3470_/Y vdd INVX1
X_4022_ _4022_/A _4020_/Y _4021_/C _4022_/D gnd _4027_/B vdd OAI22X1
XBUFX2_insert2 _4453_/Q gnd _2101_/A vdd BUFX2
X_3806_ _4376_/Q _3809_/B gnd _3807_/C vdd NOR2X1
X_3737_ _3804_/A _3737_/B _3736_/Y gnd _4375_/D vdd OAI21X1
X_2619_ _2619_/A _2618_/Y gnd _2619_/Y vdd NAND2X1
X_3668_ _3717_/A _3671_/B _3668_/C gnd _3668_/Y vdd AOI21X1
X_3599_ _2965_/B _3605_/B gnd _3600_/A vdd NAND2X1
XSFILL59600x24100 gnd vdd FILL
X_2970_ _2964_/Y _3341_/B _2970_/C gnd _2970_/Y vdd OAI21X1
X_4571_ _4501_/B _4297_/CLK _4571_/D gnd vdd DFFPOSX1
X_3522_ _3521_/Y _3508_/B _3508_/C gnd _3522_/Y vdd NAND3X1
X_3453_ _3495_/A _3452_/Y _3450_/Y gnd _3453_/Y vdd NAND3X1
X_2404_ _2402_/Y _2404_/B gnd _2416_/A vdd NAND2X1
X_2266_ _2101_/A gnd _2266_/Y vdd INVX1
X_2335_ _2333_/Y _2335_/B gnd _3344_/A vdd NOR2X1
X_3384_ _3384_/A gnd _3387_/B vdd INVX1
X_4005_ _4005_/A _4000_/Y _4027_/S gnd _4005_/Y vdd MUX2X1
X_2197_ _2394_/B _2395_/A gnd _2198_/A vdd NOR2X1
X_2120_ _4476_/C gnd _2122_/B vdd INVX1
XCLKBUF1_insert31 clock gnd _4417_/CLK vdd CLKBUF1
X_4623_ _4623_/A gnd _4623_/Y vdd INVX1
X_2884_ _2884_/A _2915_/A _2916_/A _2884_/D gnd _2885_/B vdd AOI22X1
XSFILL29520x18100 gnd vdd FILL
X_2953_ _2965_/B _2941_/Y gnd _2953_/Y vdd NOR2X1
X_4554_ _4545_/Y _4547_/B _4553_/Y gnd _4555_/C vdd OAI21X1
X_4485_ _4488_/B gnd _4485_/Y vdd INVX1
X_3505_ _3505_/A gnd _3506_/C vdd INVX1
X_3436_ _3513_/A _3513_/B _3435_/Y gnd _3436_/Y vdd OAI21X1
X_2318_ _2830_/B _2318_/B gnd _2320_/A vdd NOR2X1
X_2249_ _2235_/Y _2249_/B gnd _2251_/A vdd NAND2X1
X_3298_ gnd _3240_/B _3324_/C gnd _3298_/Y vdd NAND3X1
X_3367_ _3365_/Y _3341_/B _3367_/C gnd _3367_/Y vdd OAI21X1
X_4270_ _4124_/A _4287_/B gnd _4271_/C vdd NOR2X1
X_2103_ _2849_/A gnd data_out[15] vdd BUFX2
X_3221_ _3143_/A gnd gnd _3143_/D gnd _3221_/Y vdd AOI22X1
X_3152_ _3150_/Y _3204_/B _3152_/C _3204_/D gnd _3152_/Y vdd OAI22X1
X_3083_ gnd _3343_/B gnd _3088_/A vdd NAND2X1
XSFILL59280x6100 gnd vdd FILL
X_3985_ _3985_/A _3941_/B _3984_/Y gnd _4446_/D vdd AOI21X1
X_2867_ _4028_/A gnd _2868_/B vdd INVX1
X_4606_ _4612_/A _4184_/A gnd _4607_/C vdd NAND2X1
X_2798_ _2799_/A _2798_/B _2614_/C _2797_/Y gnd _2798_/Y vdd OAI22X1
X_2936_ _2935_/Y _2920_/B gnd _2936_/Y vdd AND2X2
X_4537_ _4537_/A _4535_/Y _4537_/C gnd _4538_/A vdd OAI21X1
X_4468_ _4565_/Q _4470_/C gnd _4469_/A vdd NAND2X1
X_3419_ _3391_/A _3632_/CLK _3419_/D gnd vdd DFFPOSX1
X_4399_ _3673_/A _4394_/CLK _4399_/D gnd vdd DFFPOSX1
XSFILL44560x10100 gnd vdd FILL
XSFILL59600x32100 gnd vdd FILL
X_3770_ _3804_/A _3760_/B _3770_/C gnd _3770_/Y vdd OAI21X1
X_2652_ _2577_/Y _2652_/B _2651_/Y gnd _2653_/C vdd AOI21X1
X_2721_ _2716_/Y _2710_/Y _2720_/Y gnd _2721_/Y vdd OAI21X1
XFILL71280x12100 gnd vdd FILL
X_4322_ _4199_/A _4359_/CLK _4322_/D gnd vdd DFFPOSX1
X_4253_ _4253_/A _4198_/B gnd _4255_/B vdd NOR2X1
X_2583_ _2583_/A _2641_/A _2582_/Y gnd _2591_/B vdd NAND3X1
X_3204_ _3204_/A _3204_/B _3204_/C _3204_/D gnd _3204_/Y vdd OAI22X1
X_4184_ _4184_/A _4240_/B _4239_/C gnd _4184_/Y vdd OAI21X1
X_3066_ _3066_/A _3063_/Y _3065_/Y gnd _3067_/B vdd NAND3X1
X_3135_ gnd _3343_/B gnd _3140_/A vdd NAND2X1
X_2919_ _2914_/Y _2919_/B _2919_/C gnd _2919_/Y vdd OAI21X1
X_3968_ _4274_/A _4146_/B _3968_/S gnd _3971_/D vdd MUX2X1
X_3899_ _4341_/Q _3904_/B gnd _3899_/Y vdd NOR2X1
XSFILL14000x32100 gnd vdd FILL
XBUFX2_insert125 _3563_/Y gnd _3579_/C vdd BUFX2
XBUFX2_insert147 _4447_/Q gnd _2881_/B vdd BUFX2
XBUFX2_insert158 _4444_/Q gnd _2428_/A vdd BUFX2
XBUFX2_insert103 _4424_/Q gnd _2619_/A vdd BUFX2
XBUFX2_insert169 _4441_/Q gnd _2932_/B vdd BUFX2
XBUFX2_insert136 _3917_/Y gnd _4152_/B vdd BUFX2
XBUFX2_insert114 _2953_/Y gnd _3246_/C vdd BUFX2
X_3822_ _3997_/B _3823_/B gnd _3822_/Y vdd NOR2X1
X_3684_ _3510_/Y gnd _3729_/A vdd INVX4
XSFILL29520x26100 gnd vdd FILL
X_2635_ _2630_/Y _2635_/B _2634_/Y gnd _2635_/Y vdd AOI21X1
X_3753_ _4166_/A _3754_/B gnd _3753_/Y vdd NAND2X1
X_2704_ _2301_/B gnd _2706_/A vdd INVX1
X_4305_ _4191_/A _4417_/CLK _4305_/D gnd vdd DFFPOSX1
X_4236_ _4341_/Q _4252_/S _4199_/C gnd _4237_/A vdd OAI21X1
X_2497_ _2496_/Y _2497_/B gnd _2497_/Y vdd AND2X2
X_2566_ _2566_/A _2566_/B gnd _3358_/A vdd NAND2X1
X_4167_ _4166_/Y _4167_/B _4155_/C _4167_/D gnd _4172_/B vdd OAI22X1
X_3049_ _3048_/Y _3049_/B gnd _3049_/Y vdd NOR2X1
X_3118_ _3116_/Y _3115_/Y _3118_/C gnd _3119_/B vdd NAND3X1
X_4098_ _4345_/Q _4377_/Q _4098_/S gnd _4101_/D vdd MUX2X1
XSFILL59120x44100 gnd vdd FILL
XSFILL14640x8100 gnd vdd FILL
X_2420_ _4050_/A _2351_/B gnd _2420_/Y vdd XNOR2X1
X_4021_ _4199_/A _4074_/S _4021_/C gnd _4022_/A vdd OAI21X1
X_2282_ _2268_/Y _2281_/Y _2272_/Y gnd _2282_/Y vdd OAI21X1
X_2351_ _2351_/A _2351_/B gnd _3277_/A vdd OR2X2
XBUFX2_insert3 _4453_/Q gnd _2925_/B vdd BUFX2
X_3736_ _3726_/A _3726_/B _4253_/A gnd _3736_/Y vdd OAI21X1
X_3805_ _3651_/A _3805_/B gnd _3805_/Y vdd AND2X2
X_2549_ _2549_/A _2548_/Y gnd _3306_/A vdd XNOR2X1
X_2618_ _2713_/A gnd _2618_/Y vdd INVX1
X_3667_ _4146_/B _3671_/B gnd _3668_/C vdd NOR2X1
X_3598_ _3601_/A data_in[14] gnd _3598_/Y vdd NAND2X1
X_4219_ _4041_/A _4041_/B _4245_/S gnd _4219_/Y vdd MUX2X1
XSFILL44880x36100 gnd vdd FILL
XSFILL59600x40100 gnd vdd FILL
X_4570_ _4495_/A _4436_/CLK _4498_/Y gnd vdd DFFPOSX1
X_2403_ _4028_/A _4206_/A gnd _2404_/B vdd XNOR2X1
X_3521_ data_in[13] gnd _3521_/Y vdd INVX1
X_3383_ _2986_/A _3382_/Y gnd _3384_/A vdd NOR2X1
X_3452_ _3451_/Y _3508_/B _3508_/C gnd _3452_/Y vdd NAND3X1
XFILL71280x20100 gnd vdd FILL
X_4004_ _4004_/A _4004_/B _4004_/C _4004_/D gnd _4005_/A vdd OAI22X1
X_2265_ _2574_/A gnd _2268_/A vdd INVX1
X_2334_ _2661_/A _2571_/B gnd _2335_/B vdd AND2X2
X_2196_ _2196_/A _2195_/B gnd _2199_/A vdd NOR2X1
X_3719_ _3752_/A _3737_/B _3719_/C gnd _3719_/Y vdd OAI21X1
X_2952_ _2952_/A gnd _2956_/C vdd INVX1
XCLKBUF1_insert32 clock gnd _4359_/CLK vdd CLKBUF1
X_4622_ _4621_/A _4620_/Y _4622_/C gnd _4549_/B vdd OAI21X1
X_4553_ _4556_/C gnd _4553_/Y vdd INVX1
X_2883_ _2418_/A gnd _2884_/D vdd INVX1
X_3366_ gnd _3340_/B gnd _3367_/C vdd NAND2X1
X_4484_ _4484_/A _4483_/Y _4557_/C gnd _4568_/D vdd AOI21X1
XSFILL14480x12100 gnd vdd FILL
X_3435_ _3435_/A gnd _3435_/Y vdd INVX1
X_3504_ _3422_/B _4614_/A gnd _3504_/Y vdd NAND2X1
X_2248_ _2245_/Y _2247_/Y gnd _3267_/A vdd NAND2X1
X_2317_ _2317_/A _2316_/Y gnd _3188_/A vdd NOR2X1
X_3297_ _3297_/A _3141_/B gnd _3300_/B vdd NAND2X1
X_2179_ _2179_/A gnd _2179_/Y vdd INVX1
X_3220_ gnd _3194_/B _3194_/C gnd _3220_/Y vdd NAND3X1
X_2102_ _2102_/A gnd data_out[14] vdd BUFX2
X_3151_ gnd gnd _3152_/C vdd INVX1
X_3082_ _3082_/A _3082_/B gnd _3094_/B vdd NOR2X1
X_2935_ _2901_/Y _2935_/B gnd _2935_/Y vdd NOR2X1
X_3984_ _2418_/A _3951_/B _3951_/C gnd _3984_/Y vdd OAI21X1
X_2866_ _2374_/B _2865_/Y gnd _2869_/A vdd NAND2X1
X_4536_ _4558_/B _4616_/Y _2147_/A _4556_/D gnd _4537_/C vdd AOI22X1
X_4605_ _4605_/A gnd _4605_/Y vdd INVX1
X_2797_ _2104_/A gnd _2797_/Y vdd INVX1
XSFILL60080x12100 gnd vdd FILL
X_3349_ _3349_/A _3141_/B gnd _3352_/B vdd NAND2X1
X_4467_ _4460_/A _4466_/Y gnd _4467_/Y vdd NAND2X1
X_3418_ _3400_/C _3632_/CLK _3416_/Y gnd vdd DFFPOSX1
X_4398_ _4157_/B _4394_/CLK _4398_/D gnd vdd DFFPOSX1
X_2582_ _2252_/A _2252_/B gnd _2582_/Y vdd XNOR2X1
X_2651_ _2647_/Y _2577_/B _2650_/Y gnd _2651_/Y vdd OAI21X1
X_2720_ _2719_/Y _2718_/Y _2717_/Y gnd _2720_/Y vdd AOI21X1
X_4252_ _4359_/Q _3836_/A _4252_/S gnd _4255_/D vdd MUX2X1
X_4321_ _4010_/A _4417_/CLK _4321_/D gnd vdd DFFPOSX1
X_4183_ _4183_/A _4178_/Y _4205_/S gnd _4183_/Y vdd MUX2X1
X_3203_ gnd gnd _3204_/C vdd INVX1
X_3065_ _3143_/A gnd gnd _3143_/D gnd _3065_/Y vdd AOI22X1
X_3134_ _3134_/A _3133_/Y gnd _3146_/B vdd NOR2X1
X_3898_ _3764_/A _3893_/B _3898_/C gnd _3898_/Y vdd AOI21X1
X_2918_ _2916_/Y _2918_/B _2918_/C gnd _2919_/C vdd AOI21X1
X_3967_ _3966_/Y _3967_/B _3988_/C _3964_/Y gnd _3972_/B vdd OAI22X1
X_2849_ _2849_/A gnd _2926_/B vdd INVX1
X_4519_ _4574_/Q gnd _4528_/A vdd INVX2
XBUFX2_insert115 _3642_/Q gnd _4254_/C vdd BUFX2
XBUFX2_insert104 _4424_/Q gnd _2292_/B vdd BUFX2
XBUFX2_insert159 _4435_/Q gnd _4217_/A vdd BUFX2
XBUFX2_insert137 _3917_/Y gnd _4217_/B vdd BUFX2
XBUFX2_insert126 _3563_/Y gnd _3582_/C vdd BUFX2
XBUFX2_insert148 _4447_/Q gnd _2482_/B vdd BUFX2
XSFILL59120x6100 gnd vdd FILL
X_3821_ _3788_/A _3809_/B _3821_/C gnd _4383_/D vdd AOI21X1
X_3752_ _3752_/A _3740_/B _3751_/Y gnd _4318_/D vdd OAI21X1
X_3683_ _3794_/A _3683_/B _3682_/Y gnd _4402_/D vdd AOI21X1
X_2565_ _2560_/Y _2565_/B gnd _2566_/B vdd NAND2X1
X_4304_ _4002_/A _4298_/CLK _4304_/D gnd vdd DFFPOSX1
X_2634_ _2600_/A _2631_/Y _2633_/Y _2600_/Y gnd _2634_/Y vdd OAI22X1
X_2703_ _2703_/A _2703_/B gnd _2703_/Y vdd NOR2X1
X_4235_ _4057_/A _4231_/B gnd _4235_/Y vdd NOR2X1
X_2496_ _2494_/Y _2218_/B gnd _2496_/Y vdd OR2X2
XSFILL29520x42100 gnd vdd FILL
X_3117_ _3143_/A gnd gnd _3143_/D gnd _3118_/C vdd AOI22X1
X_4166_ _4166_/A _4166_/B _4155_/C gnd _4166_/Y vdd OAI21X1
XSFILL14480x20100 gnd vdd FILL
X_4097_ _4097_/A _3941_/B _4096_/Y gnd _4424_/D vdd AOI21X1
X_3048_ _3046_/Y _3204_/B _3047_/Y _3204_/D gnd _3048_/Y vdd OAI22X1
XSFILL59600x38100 gnd vdd FILL
XSFILL44560x16100 gnd vdd FILL
X_4020_ _3726_/C _4020_/B gnd _4020_/Y vdd NOR2X1
X_2281_ _2280_/Y _2254_/Y _2264_/A gnd _2281_/Y vdd AOI21X1
X_2350_ _4039_/A _4217_/A gnd _3251_/A vdd OR2X2
XFILL71280x18100 gnd vdd FILL
XBUFX2_insert4 _3772_/Y gnd _3775_/B vdd BUFX2
XSFILL44240x4100 gnd vdd FILL
X_3804_ _3804_/A _3803_/B _3804_/C gnd _3804_/Y vdd OAI21X1
X_3735_ _3902_/A _3737_/B _3734_/Y gnd _3735_/Y vdd OAI21X1
X_2548_ _2547_/Y _2548_/B gnd _2548_/Y vdd NAND2X1
X_2617_ _2752_/A _2616_/Y gnd _2617_/Y vdd NAND2X1
X_3597_ _3597_/A _3595_/Y _3615_/C gnd _3597_/Y vdd AOI21X1
X_3666_ _3666_/A gnd _3717_/A vdd INVX4
X_4218_ _4216_/Y _4217_/B _4218_/C gnd _4218_/Y vdd AOI21X1
XSFILL14000x38100 gnd vdd FILL
X_2479_ _2204_/A _2201_/B gnd _2537_/A vdd XOR2X1
X_4149_ _4149_/A _4149_/B _4170_/C _4149_/D gnd _4149_/Y vdd OAI22X1
X_3520_ _3513_/A _3513_/B _3520_/C gnd _3520_/Y vdd OAI21X1
X_2402_ _4039_/A _4217_/A gnd _2402_/Y vdd XNOR2X1
X_2333_ _2661_/A _2571_/B gnd _2333_/Y vdd NOR2X1
X_3451_ data_in[3] gnd _3451_/Y vdd INVX1
X_3382_ _2986_/B gnd _3382_/Y vdd INVX1
X_4003_ _4003_/A _4052_/S _4065_/C gnd _4004_/A vdd OAI21X1
X_2264_ _2264_/A gnd _2264_/Y vdd INVX1
X_2195_ _2191_/B _2195_/B _2194_/Y gnd _2195_/Y vdd AOI21X1
X_3649_ _3649_/A _3649_/B _3649_/C gnd _3649_/Y vdd NAND3X1
X_3718_ _3703_/B _3726_/B _4366_/Q gnd _3719_/C vdd OAI21X1
XSFILL29200x14100 gnd vdd FILL
XSFILL45040x36100 gnd vdd FILL
XCLKBUF1_insert22 clock gnd _4345_/CLK vdd CLKBUF1
X_2951_ _2433_/Y gnd _2951_/Y vdd INVX1
XCLKBUF1_insert33 clock gnd _4373_/CLK vdd CLKBUF1
X_4621_ _4621_/A _4239_/A gnd _4622_/C vdd NAND2X1
X_4552_ _4578_/Q _4556_/C _4548_/B gnd _4560_/B vdd NAND3X1
X_3503_ _3503_/A _3502_/Y gnd _3503_/Y vdd NAND2X1
X_4483_ _4558_/B _4592_/Y _4488_/A _4556_/D gnd _4483_/Y vdd AOI22X1
X_2882_ _2881_/B gnd _2884_/A vdd INVX1
X_2316_ _2218_/B _2421_/B gnd _2316_/Y vdd AND2X2
X_3296_ _3291_/Y _3296_/B _3295_/Y gnd _3301_/A vdd NAND3X1
X_3365_ gnd gnd _3365_/Y vdd INVX1
X_3434_ _3434_/A _4584_/A gnd _3434_/Y vdd NAND2X1
XSFILL29520x50100 gnd vdd FILL
X_2247_ _2249_/B _2247_/B gnd _2247_/Y vdd NAND2X1
X_2178_ _2172_/B _2168_/Y _2178_/C gnd _2278_/A vdd NAND3X1
XSFILL44560x24100 gnd vdd FILL
X_3150_ _2483_/Y gnd _3150_/Y vdd INVX1
X_2101_ _2101_/A gnd data_out[13] vdd BUFX2
XFILL71280x26100 gnd vdd FILL
X_3081_ _3081_/A _3341_/B _3081_/C gnd _3082_/B vdd OAI21X1
XSFILL44400x100 gnd vdd FILL
X_2865_ _2374_/A gnd _2865_/Y vdd INVX1
X_2934_ _2934_/A _2933_/Y gnd _2935_/B vdd NAND2X1
X_3983_ _3982_/Y _3983_/B _4027_/S gnd _3985_/A vdd MUX2X1
X_4535_ _2147_/A _4534_/Y _4548_/C gnd _4535_/Y vdd OAI21X1
X_4466_ _4470_/C gnd _4466_/Y vdd INVX1
X_2796_ _2456_/A gnd _2798_/B vdd INVX1
X_4604_ _4594_/A _4602_/Y _4603_/Y gnd _4604_/Y vdd OAI21X1
X_3348_ _3348_/A _3348_/B _3347_/Y gnd _3353_/A vdd NAND3X1
X_3279_ _3279_/A _2950_/B _3278_/Y _3201_/D gnd _3283_/B vdd OAI22X1
X_3417_ _3406_/B _3632_/CLK _3417_/D gnd vdd DFFPOSX1
X_4397_ _4146_/B _4383_/CLK _3668_/Y gnd vdd DFFPOSX1
XSFILL14000x46100 gnd vdd FILL
X_2581_ _2778_/A _2580_/Y gnd _2641_/A vdd NAND2X1
X_4320_ _4320_/Q _4407_/CLK _3756_/Y gnd vdd DFFPOSX1
X_2650_ _2650_/A _2650_/B _2650_/C gnd _2650_/Y vdd OAI21X1
X_4251_ _4251_/A _4040_/B _4250_/Y gnd _4438_/D vdd AOI21X1
X_4182_ _4181_/Y _4182_/B _4247_/C _4182_/D gnd _4183_/A vdd OAI22X1
X_3202_ _3202_/A gnd _3204_/A vdd INVX1
X_3133_ _3133_/A _3341_/B _3132_/Y gnd _3133_/Y vdd OAI21X1
XSFILL14480x18100 gnd vdd FILL
X_3064_ gnd _3240_/B _3246_/C gnd _3066_/A vdd NAND3X1
X_2848_ _2848_/A _2848_/B gnd _2848_/Y vdd NAND2X1
X_3897_ _3897_/A _3893_/B gnd _3898_/C vdd NOR2X1
X_2917_ _2915_/A _2884_/A gnd _2918_/B vdd NAND2X1
X_3966_ _3966_/A _3968_/S _3988_/C gnd _3966_/Y vdd OAI21X1
X_2779_ _2779_/A _2779_/B _2778_/Y gnd _2828_/A vdd OAI21X1
X_4449_ _4449_/Q _4451_/CLK _4449_/D gnd vdd DFFPOSX1
X_4518_ _4516_/Y _4518_/B _4557_/C gnd _4518_/Y vdd AOI21X1
XSFILL29200x22100 gnd vdd FILL
XBUFX2_insert116 _3642_/Q gnd _4155_/C vdd BUFX2
XBUFX2_insert149 _4447_/Q gnd _2312_/A vdd BUFX2
XBUFX2_insert105 _4424_/Q gnd _2429_/B vdd BUFX2
XBUFX2_insert138 _3917_/Y gnd _4130_/B vdd BUFX2
XBUFX2_insert127 _3410_/Y gnd _3518_/A vdd BUFX2
X_3682_ _3682_/A _3683_/B gnd _3682_/Y vdd NOR2X1
X_2702_ _2699_/Y _2701_/Y _2702_/C gnd _2703_/B vdd NAND3X1
X_3820_ _3820_/A _3809_/B gnd _3821_/C vdd NOR2X1
X_3751_ _3751_/A _3740_/B gnd _3751_/Y vdd NAND2X1
X_2495_ _2218_/B _2494_/Y gnd _2497_/B vdd NAND2X1
X_2564_ _2563_/Y _2554_/A _2556_/Y gnd _2565_/B vdd OAI21X1
X_2633_ _2633_/A _2633_/B _2632_/Y gnd _2633_/Y vdd OAI21X1
X_4303_ _3854_/A _4300_/CLK _4303_/D gnd vdd DFFPOSX1
X_4234_ _4056_/A _3691_/A _4252_/S gnd _4237_/D vdd MUX2X1
X_4165_ _4367_/Q _4088_/B gnd _4167_/B vdd NOR2X1
X_4096_ _2429_/B _3941_/B _4162_/C gnd _4096_/Y vdd OAI21X1
X_3116_ gnd _3194_/B _3116_/C gnd _3116_/Y vdd NAND3X1
X_3047_ gnd gnd _3047_/Y vdd INVX1
X_3949_ _3949_/A _3949_/B _3934_/C _3946_/Y gnd _3950_/A vdd OAI22X1
XSFILL44560x32100 gnd vdd FILL
X_2280_ _2280_/A _2278_/Y _2280_/C gnd _2280_/Y vdd OAI21X1
X_3803_ _4359_/Q _3803_/B gnd _3804_/C vdd NAND2X1
XBUFX2_insert5 _3772_/Y gnd _3803_/B vdd BUFX2
XFILL71280x34100 gnd vdd FILL
X_3734_ _3732_/A _3726_/B _4064_/A gnd _3734_/Y vdd OAI21X1
X_3665_ _4273_/A _3671_/B _3664_/Y gnd _3665_/Y vdd AOI21X1
X_2616_ _2711_/A gnd _2616_/Y vdd INVX1
X_4217_ _4217_/A _4217_/B _4239_/C gnd _4218_/C vdd OAI21X1
X_2547_ _2330_/B _2544_/Y gnd _2547_/Y vdd NAND2X1
X_3596_ _2986_/A _3605_/B gnd _3597_/A vdd NAND2X1
X_2478_ _2201_/B _2478_/B gnd _2491_/B vdd NOR2X1
X_4079_ _3870_/A _4002_/B gnd _4079_/Y vdd NOR2X1
X_4148_ _3970_/A _4153_/S _4155_/C gnd _4149_/A vdd OAI21X1
X_2332_ _2330_/Y _2332_/B gnd _3318_/A vdd NOR2X1
X_2401_ _2385_/Y _2401_/B gnd _2984_/A vdd NOR2X1
X_3381_ _3601_/A gnd _3416_/A vdd INVX1
X_3450_ _3513_/A _3513_/B _3449_/Y gnd _3450_/Y vdd OAI21X1
X_4002_ _4002_/A _4002_/B gnd _4004_/B vdd NOR2X1
X_2263_ _2259_/B _2263_/B gnd _2264_/A vdd NAND2X1
X_2194_ _2394_/B _2395_/A gnd _2194_/Y vdd AND2X2
XSFILL29520x48100 gnd vdd FILL
XSFILL14480x26100 gnd vdd FILL
X_3579_ _3579_/A _3579_/B _3579_/C gnd _3579_/Y vdd AOI21X1
X_3717_ _3717_/A _3737_/B _3716_/Y gnd _4365_/D vdd OAI21X1
X_3648_ _3699_/A _3771_/A gnd _3651_/B vdd NOR2X1
XSFILL44080x44100 gnd vdd FILL
XCLKBUF1_insert23 clock gnd _4436_/CLK vdd CLKBUF1
X_4620_ _4620_/A gnd _4620_/Y vdd INVX1
X_2881_ _2879_/Y _2881_/B _2881_/C _2881_/D gnd _2885_/A vdd AOI22X1
XCLKBUF1_insert34 clock gnd _4383_/CLK vdd CLKBUF1
XSFILL14160x100 gnd vdd FILL
X_2950_ _2939_/Y _2950_/B _2950_/C _3201_/D gnd _2950_/Y vdd OAI22X1
X_4551_ _4551_/A _4228_/C gnd _4551_/Y vdd AND2X2
X_4482_ _4548_/C _4482_/B _4493_/B gnd _4484_/A vdd NAND3X1
X_3433_ _3422_/Y _3433_/B gnd _3433_/Y vdd NAND2X1
X_3502_ _3495_/A _3501_/Y _3499_/Y gnd _3502_/Y vdd NAND3X1
X_2246_ _2233_/Y _2236_/Y gnd _2247_/B vdd NOR2X1
X_2315_ _2421_/A _2421_/B gnd _2317_/A vdd NOR2X1
X_3295_ _3294_/Y _3295_/B gnd _3295_/Y vdd AND2X2
X_3364_ _3362_/Y _3130_/B _3364_/C _3130_/D gnd _3368_/A vdd OAI22X1