* XSpice netlist created from SPICE and liberty sources by spi2xspice.py
*SPICE netlist created from verilog structural netlist module uProcessor by vlog2Spice (qflow)
** Start of included library /usr/local/share/qflow/tech/osu035/osu035_stdcells.sp
** End of included library /usr/local/share/qflow/tech/osu035/osu035_stdcells.sp
.subckt uProcessor a_vdd a_gnd a_adrs_bus_0_ a_adrs_bus_1_ a_adrs_bus_2_ a_adrs_bus_3_ a_adrs_bus_4_ a_adrs_bus_5_ a_adrs_bus_6_ a_adrs_bus_7_ a_adrs_bus_8_ a_adrs_bus_9_ a_adrs_bus_10_ a_adrs_bus_11_ a_adrs_bus_12_ a_adrs_bus_13_ a_adrs_bus_14_ a_adrs_bus_15_ a_clock a_data_in_0_ a_data_in_1_ a_data_in_2_ a_data_in_3_ a_data_in_4_ a_data_in_5_ a_data_in_6_ a_data_in_7_ a_data_in_8_ a_data_in_9_ a_data_in_10_ a_data_in_11_ a_data_in_12_ a_data_in_13_ a_data_in_14_ a_data_in_15_ a_data_out_0_ a_data_out_1_ a_data_out_2_ a_data_out_3_ a_data_out_4_ a_data_out_5_ a_data_out_6_ a_data_out_7_ a_data_out_8_ a_data_out_9_ a_data_out_10_ a_data_out_11_ a_data_out_12_ a_data_out_13_ a_data_out_14_ a_data_out_15_ a_mem_rd a_mem_wr a_reset
ABUFX2_insert301 [\internal_register_inst_07.ra_out\_1_] \internal_register_inst_07.ra_out_1_bF$buf0\ d_lut_BUFX2
ABUFX2_insert300 [\internal_register_inst_07.ra_out\_1_] \internal_register_inst_07.ra_out_1_bF$buf1\ d_lut_BUFX2
ABUFX2_insert299 [\internal_register_inst_07.ra_out\_1_] \internal_register_inst_07.ra_out_1_bF$buf2\ d_lut_BUFX2
ABUFX2_insert298 [\internal_register_inst_07.ra_out\_1_] \internal_register_inst_07.ra_out_1_bF$buf3\ d_lut_BUFX2
ABUFX2_insert297 [\internal_register_inst_07.ra_out\_1_] \internal_register_inst_07.ra_out_1_bF$buf4\ d_lut_BUFX2
ABUFX2_insert296 [reset] reset_bF$buf0 d_lut_BUFX2
ABUFX2_insert295 [reset] reset_bF$buf1 d_lut_BUFX2
ABUFX2_insert294 [reset] reset_bF$buf2 d_lut_BUFX2
ABUFX2_insert293 [reset] reset_bF$buf3 d_lut_BUFX2
ABUFX2_insert292 [reset] reset_bF$buf4 d_lut_BUFX2
ABUFX2_insert291 [reset] reset_bF$buf5 d_lut_BUFX2
ABUFX2_insert290 [\internal_register_inst_07.ra_out\_4_] \internal_register_inst_07.ra_out_4_bF$buf0\ d_lut_BUFX2
ABUFX2_insert289 [\internal_register_inst_07.ra_out\_4_] \internal_register_inst_07.ra_out_4_bF$buf1\ d_lut_BUFX2
ABUFX2_insert288 [\internal_register_inst_07.ra_out\_4_] \internal_register_inst_07.ra_out_4_bF$buf2\ d_lut_BUFX2
ABUFX2_insert287 [\internal_register_inst_07.ra_out\_4_] \internal_register_inst_07.ra_out_4_bF$buf3\ d_lut_BUFX2
ABUFX2_insert286 [\internal_register_inst_07.ra_out\_4_] \internal_register_inst_07.ra_out_4_bF$buf4\ d_lut_BUFX2
ABUFX2_insert285 [\instruction_decoder_inst_08.rBadrs\_1_] \instruction_decoder_inst_08.rBadrs_1_bF$buf0\ d_lut_BUFX2
ABUFX2_insert284 [\instruction_decoder_inst_08.rBadrs\_1_] \instruction_decoder_inst_08.rBadrs_1_bF$buf1\ d_lut_BUFX2
ABUFX2_insert283 [\instruction_decoder_inst_08.rBadrs\_1_] \instruction_decoder_inst_08.rBadrs_1_bF$buf2\ d_lut_BUFX2
ABUFX2_insert282 [\instruction_decoder_inst_08.rBadrs\_1_] \instruction_decoder_inst_08.rBadrs_1_bF$buf3\ d_lut_BUFX2
ABUFX2_insert281 [\instruction_decoder_inst_08.rBadrs\_1_] \instruction_decoder_inst_08.rBadrs_1_bF$buf4\ d_lut_BUFX2
ABUFX2_insert280 [\instruction_decoder_inst_08.rBadrs\_1_] \instruction_decoder_inst_08.rBadrs_1_bF$buf5\ d_lut_BUFX2
ABUFX2_insert279 [\instruction_decoder_inst_08.rBadrs\_1_] \instruction_decoder_inst_08.rBadrs_1_bF$buf6\ d_lut_BUFX2
ABUFX2_insert278 [\instruction_decoder_inst_08.rBadrs\_1_] \instruction_decoder_inst_08.rBadrs_1_bF$buf7\ d_lut_BUFX2
ABUFX2_insert277 [_1777_] _1777__bF$buf0 d_lut_BUFX2
ABUFX2_insert276 [_1777_] _1777__bF$buf1 d_lut_BUFX2
ABUFX2_insert275 [_1777_] _1777__bF$buf2 d_lut_BUFX2
ABUFX2_insert274 [_1777_] _1777__bF$buf3 d_lut_BUFX2
ABUFX2_insert273 [_1777_] _1777__bF$buf4 d_lut_BUFX2
ABUFX2_insert272 [_747_] _747__bF$buf0 d_lut_BUFX2
ABUFX2_insert271 [_747_] _747__bF$buf1 d_lut_BUFX2
ABUFX2_insert270 [_747_] _747__bF$buf2 d_lut_BUFX2
ABUFX2_insert269 [_747_] _747__bF$buf3 d_lut_BUFX2
ABUFX2_insert268 [\internal_register_inst_07.ra_out\_7_] \internal_register_inst_07.ra_out_7_bF$buf0\ d_lut_BUFX2
ABUFX2_insert267 [\internal_register_inst_07.ra_out\_7_] \internal_register_inst_07.ra_out_7_bF$buf1\ d_lut_BUFX2
ABUFX2_insert266 [\internal_register_inst_07.ra_out\_7_] \internal_register_inst_07.ra_out_7_bF$buf2\ d_lut_BUFX2
ABUFX2_insert265 [\internal_register_inst_07.ra_out\_7_] \internal_register_inst_07.ra_out_7_bF$buf3\ d_lut_BUFX2
ABUFX2_insert264 [\internal_register_inst_07.ra_out\_7_] \internal_register_inst_07.ra_out_7_bF$buf4\ d_lut_BUFX2
ABUFX2_insert263 [\internal_register_inst_07.rb_out\_0_] \internal_register_inst_07.rb_out_0_bF$buf0\ d_lut_BUFX2
ABUFX2_insert262 [\internal_register_inst_07.rb_out\_0_] \internal_register_inst_07.rb_out_0_bF$buf1\ d_lut_BUFX2
ABUFX2_insert261 [\internal_register_inst_07.rb_out\_0_] \internal_register_inst_07.rb_out_0_bF$buf2\ d_lut_BUFX2
ABUFX2_insert260 [\internal_register_inst_07.rb_out\_0_] \internal_register_inst_07.rb_out_0_bF$buf3\ d_lut_BUFX2
ABUFX2_insert259 [_1613_] _1613__bF$buf0 d_lut_BUFX2
ABUFX2_insert258 [_1613_] _1613__bF$buf1 d_lut_BUFX2
ABUFX2_insert257 [_1613_] _1613__bF$buf2 d_lut_BUFX2
ABUFX2_insert256 [_1613_] _1613__bF$buf3 d_lut_BUFX2
ABUFX2_insert255 [_1613_] _1613__bF$buf4 d_lut_BUFX2
ABUFX2_insert254 [\internal_register_inst_07.ra_out\_10_] \internal_register_inst_07.ra_out_10_bF$buf0\ d_lut_BUFX2
ABUFX2_insert253 [\internal_register_inst_07.ra_out\_10_] \internal_register_inst_07.ra_out_10_bF$buf1\ d_lut_BUFX2
ABUFX2_insert252 [\internal_register_inst_07.ra_out\_10_] \internal_register_inst_07.ra_out_10_bF$buf2\ d_lut_BUFX2
ABUFX2_insert251 [\internal_register_inst_07.ra_out\_10_] \internal_register_inst_07.ra_out_10_bF$buf3\ d_lut_BUFX2
ABUFX2_insert250 [\internal_register_inst_07.rb_out\_3_] \internal_register_inst_07.rb_out_3_bF$buf0\ d_lut_BUFX2
ABUFX2_insert249 [\internal_register_inst_07.rb_out\_3_] \internal_register_inst_07.rb_out_3_bF$buf1\ d_lut_BUFX2
ABUFX2_insert248 [\internal_register_inst_07.rb_out\_3_] \internal_register_inst_07.rb_out_3_bF$buf2\ d_lut_BUFX2
ABUFX2_insert247 [\internal_register_inst_07.rb_out\_3_] \internal_register_inst_07.rb_out_3_bF$buf3\ d_lut_BUFX2
ABUFX2_insert246 [\internal_register_inst_07.ra_out\_13_] \internal_register_inst_07.ra_out_13_bF$buf0\ d_lut_BUFX2
ABUFX2_insert245 [\internal_register_inst_07.ra_out\_13_] \internal_register_inst_07.ra_out_13_bF$buf1\ d_lut_BUFX2
ABUFX2_insert244 [\internal_register_inst_07.ra_out\_13_] \internal_register_inst_07.ra_out_13_bF$buf2\ d_lut_BUFX2
ABUFX2_insert243 [\internal_register_inst_07.ra_out\_13_] \internal_register_inst_07.ra_out_13_bF$buf3\ d_lut_BUFX2
ABUFX2_insert242 [\internal_register_inst_07.ra_out\_13_] \internal_register_inst_07.ra_out_13_bF$buf4\ d_lut_BUFX2
ABUFX2_insert241 [\internal_register_inst_07.rb_out\_6_] \internal_register_inst_07.rb_out_6_bF$buf0\ d_lut_BUFX2
ABUFX2_insert240 [\internal_register_inst_07.rb_out\_6_] \internal_register_inst_07.rb_out_6_bF$buf1\ d_lut_BUFX2
ABUFX2_insert239 [\internal_register_inst_07.rb_out\_6_] \internal_register_inst_07.rb_out_6_bF$buf2\ d_lut_BUFX2
ABUFX2_insert238 [\internal_register_inst_07.rb_out\_6_] \internal_register_inst_07.rb_out_6_bF$buf3\ d_lut_BUFX2
ABUFX2_insert237 [_759_] _759__bF$buf0 d_lut_BUFX2
ABUFX2_insert236 [_759_] _759__bF$buf1 d_lut_BUFX2
ABUFX2_insert235 [_759_] _759__bF$buf2 d_lut_BUFX2
ABUFX2_insert234 [_759_] _759__bF$buf3 d_lut_BUFX2
ABUFX2_insert233 [\internal_register_inst_07.rb_out\_9_] \internal_register_inst_07.rb_out_9_bF$buf0\ d_lut_BUFX2
ABUFX2_insert232 [\internal_register_inst_07.rb_out\_9_] \internal_register_inst_07.rb_out_9_bF$buf1\ d_lut_BUFX2
ABUFX2_insert231 [\internal_register_inst_07.rb_out\_9_] \internal_register_inst_07.rb_out_9_bF$buf2\ d_lut_BUFX2
ABUFX2_insert230 [\internal_register_inst_07.rb_out\_9_] \internal_register_inst_07.rb_out_9_bF$buf3\ d_lut_BUFX2
ABUFX2_insert229 [\internal_register_inst_07.rb_out\_9_] \internal_register_inst_07.rb_out_9_bF$buf4\ d_lut_BUFX2
ABUFX2_insert228 [_762_] _762__bF$buf0 d_lut_BUFX2
ABUFX2_insert227 [_762_] _762__bF$buf1 d_lut_BUFX2
ABUFX2_insert226 [_762_] _762__bF$buf2 d_lut_BUFX2
ABUFX2_insert225 [_762_] _762__bF$buf3 d_lut_BUFX2
ABUFX2_insert224 [_762_] _762__bF$buf4 d_lut_BUFX2
ABUFX2_insert223 [_762_] _762__bF$buf5 d_lut_BUFX2
ABUFX2_insert222 [_1469_] _1469__bF$buf0 d_lut_BUFX2
ABUFX2_insert221 [_1469_] _1469__bF$buf1 d_lut_BUFX2
ABUFX2_insert220 [_1469_] _1469__bF$buf2 d_lut_BUFX2
ABUFX2_insert219 [_1469_] _1469__bF$buf3 d_lut_BUFX2
ABUFX2_insert218 [_1469_] _1469__bF$buf4 d_lut_BUFX2
ABUFX2_insert217 [_730_] _730__bF$buf0 d_lut_BUFX2
ABUFX2_insert216 [_730_] _730__bF$buf1 d_lut_BUFX2
ABUFX2_insert215 [_730_] _730__bF$buf2 d_lut_BUFX2
ABUFX2_insert214 [_730_] _730__bF$buf3 d_lut_BUFX2
ABUFX2_insert213 [\instruction_decoder_inst_08.rAadrs\_0_] \instruction_decoder_inst_08.rAadrs_0_bF$buf0\ d_lut_BUFX2
ABUFX2_insert212 [\instruction_decoder_inst_08.rAadrs\_0_] \instruction_decoder_inst_08.rAadrs_0_bF$buf1\ d_lut_BUFX2
ABUFX2_insert211 [\instruction_decoder_inst_08.rAadrs\_0_] \instruction_decoder_inst_08.rAadrs_0_bF$buf2\ d_lut_BUFX2
ABUFX2_insert210 [\instruction_decoder_inst_08.rAadrs\_0_] \instruction_decoder_inst_08.rAadrs_0_bF$buf3\ d_lut_BUFX2
ABUFX2_insert209 [\instruction_decoder_inst_08.rAadrs\_0_] \instruction_decoder_inst_08.rAadrs_0_bF$buf4\ d_lut_BUFX2
ABUFX2_insert208 [\instruction_decoder_inst_08.rAadrs\_0_] \instruction_decoder_inst_08.rAadrs_0_bF$buf5\ d_lut_BUFX2
ABUFX2_insert207 [\instruction_decoder_inst_08.rAadrs\_0_] \instruction_decoder_inst_08.rAadrs_0_bF$buf6\ d_lut_BUFX2
ABUFX2_insert206 [\instruction_decoder_inst_08.rAadrs\_0_] \instruction_decoder_inst_08.rAadrs_0_bF$buf7\ d_lut_BUFX2
ABUFX2_insert205 [\internal_register_inst_07.rb_out\_11_] \internal_register_inst_07.rb_out_11_bF$buf0\ d_lut_BUFX2
ABUFX2_insert204 [\internal_register_inst_07.rb_out\_11_] \internal_register_inst_07.rb_out_11_bF$buf1\ d_lut_BUFX2
ABUFX2_insert203 [\internal_register_inst_07.rb_out\_11_] \internal_register_inst_07.rb_out_11_bF$buf2\ d_lut_BUFX2
ABUFX2_insert202 [\internal_register_inst_07.rb_out\_11_] \internal_register_inst_07.rb_out_11_bF$buf3\ d_lut_BUFX2
ABUFX2_insert201 [\internal_register_inst_07.rb_out\_11_] \internal_register_inst_07.rb_out_11_bF$buf4\ d_lut_BUFX2
ABUFX2_insert200 [\address_mux_inst_05.adrs_ctrl\] \address_mux_inst_05.adrs_ctrl_bF$buf0\ d_lut_BUFX2
ABUFX2_insert199 [\address_mux_inst_05.adrs_ctrl\] \address_mux_inst_05.adrs_ctrl_bF$buf1\ d_lut_BUFX2
ABUFX2_insert198 [\address_mux_inst_05.adrs_ctrl\] \address_mux_inst_05.adrs_ctrl_bF$buf2\ d_lut_BUFX2
ABUFX2_insert197 [\address_mux_inst_05.adrs_ctrl\] \address_mux_inst_05.adrs_ctrl_bF$buf3\ d_lut_BUFX2
ABUFX2_insert196 [\address_mux_inst_05.adrs_ctrl\] \address_mux_inst_05.adrs_ctrl_bF$buf4\ d_lut_BUFX2
ABUFX2_insert195 [\internal_register_inst_07.rb_out\_14_] \internal_register_inst_07.rb_out_14_bF$buf0\ d_lut_BUFX2
ABUFX2_insert194 [\internal_register_inst_07.rb_out\_14_] \internal_register_inst_07.rb_out_14_bF$buf1\ d_lut_BUFX2
ABUFX2_insert193 [\internal_register_inst_07.rb_out\_14_] \internal_register_inst_07.rb_out_14_bF$buf2\ d_lut_BUFX2
ABUFX2_insert192 [\internal_register_inst_07.rb_out\_14_] \internal_register_inst_07.rb_out_14_bF$buf3\ d_lut_BUFX2
ABUFX2_insert191 [\internal_register_inst_07.ra_out\_2_] \internal_register_inst_07.ra_out_2_bF$buf0\ d_lut_BUFX2
ABUFX2_insert190 [\internal_register_inst_07.ra_out\_2_] \internal_register_inst_07.ra_out_2_bF$buf1\ d_lut_BUFX2
ABUFX2_insert189 [\internal_register_inst_07.ra_out\_2_] \internal_register_inst_07.ra_out_2_bF$buf2\ d_lut_BUFX2
ABUFX2_insert188 [\internal_register_inst_07.ra_out\_2_] \internal_register_inst_07.ra_out_2_bF$buf3\ d_lut_BUFX2
ABUFX2_insert187 [\internal_register_inst_07.ra_out\_5_] \internal_register_inst_07.ra_out_5_bF$buf0\ d_lut_BUFX2
ABUFX2_insert186 [\internal_register_inst_07.ra_out\_5_] \internal_register_inst_07.ra_out_5_bF$buf1\ d_lut_BUFX2
ABUFX2_insert185 [\internal_register_inst_07.ra_out\_5_] \internal_register_inst_07.ra_out_5_bF$buf2\ d_lut_BUFX2
ABUFX2_insert184 [\internal_register_inst_07.ra_out\_5_] \internal_register_inst_07.ra_out_5_bF$buf3\ d_lut_BUFX2
ABUFX2_insert183 [\internal_register_inst_07.ra_out\_5_] \internal_register_inst_07.ra_out_5_bF$buf4\ d_lut_BUFX2
ABUFX2_insert182 [\control_unit_ints_09.flag\] \control_unit_ints_09.flag_bF$buf0\ d_lut_BUFX2
ABUFX2_insert181 [\control_unit_ints_09.flag\] \control_unit_ints_09.flag_bF$buf1\ d_lut_BUFX2
ABUFX2_insert180 [\control_unit_ints_09.flag\] \control_unit_ints_09.flag_bF$buf2\ d_lut_BUFX2
ABUFX2_insert179 [\control_unit_ints_09.flag\] \control_unit_ints_09.flag_bF$buf3\ d_lut_BUFX2
ABUFX2_insert178 [\control_unit_ints_09.flag\] \control_unit_ints_09.flag_bF$buf4\ d_lut_BUFX2
ABUFX2_insert177 [\control_unit_ints_09.flag\] \control_unit_ints_09.flag_bF$buf5\ d_lut_BUFX2
ABUFX2_insert176 [\control_unit_ints_09.flag\] \control_unit_ints_09.flag_bF$buf6\ d_lut_BUFX2
ABUFX2_insert175 [\internal_register_inst_07.ra_out\_8_] \internal_register_inst_07.ra_out_8_bF$buf0\ d_lut_BUFX2
ABUFX2_insert174 [\internal_register_inst_07.ra_out\_8_] \internal_register_inst_07.ra_out_8_bF$buf1\ d_lut_BUFX2
ABUFX2_insert173 [\internal_register_inst_07.ra_out\_8_] \internal_register_inst_07.ra_out_8_bF$buf2\ d_lut_BUFX2
ABUFX2_insert172 [\internal_register_inst_07.ra_out\_8_] \internal_register_inst_07.ra_out_8_bF$buf3\ d_lut_BUFX2
ABUFX2_insert171 [\internal_register_inst_07.rb_out\_1_] \internal_register_inst_07.rb_out_1_bF$buf0\ d_lut_BUFX2
ABUFX2_insert170 [\internal_register_inst_07.rb_out\_1_] \internal_register_inst_07.rb_out_1_bF$buf1\ d_lut_BUFX2
ABUFX2_insert169 [\internal_register_inst_07.rb_out\_1_] \internal_register_inst_07.rb_out_1_bF$buf2\ d_lut_BUFX2
ABUFX2_insert168 [\internal_register_inst_07.rb_out\_1_] \internal_register_inst_07.rb_out_1_bF$buf3\ d_lut_BUFX2
ABUFX2_insert167 [_1937_] _1937__bF$buf0 d_lut_BUFX2
ABUFX2_insert166 [_1937_] _1937__bF$buf1 d_lut_BUFX2
ABUFX2_insert165 [_1937_] _1937__bF$buf2 d_lut_BUFX2
ABUFX2_insert164 [_1937_] _1937__bF$buf3 d_lut_BUFX2
ABUFX2_insert163 [_1937_] _1937__bF$buf4 d_lut_BUFX2
ABUFX2_insert162 [\internal_register_inst_07.ra_out\_11_] \internal_register_inst_07.ra_out_11_bF$buf0\ d_lut_BUFX2
ABUFX2_insert161 [\internal_register_inst_07.ra_out\_11_] \internal_register_inst_07.ra_out_11_bF$buf1\ d_lut_BUFX2
ABUFX2_insert160 [\internal_register_inst_07.ra_out\_11_] \internal_register_inst_07.ra_out_11_bF$buf2\ d_lut_BUFX2
ABUFX2_insert159 [\internal_register_inst_07.ra_out\_11_] \internal_register_inst_07.ra_out_11_bF$buf3\ d_lut_BUFX2
ABUFX2_insert158 [\internal_register_inst_07.rb_out\_4_] \internal_register_inst_07.rb_out_4_bF$buf0\ d_lut_BUFX2
ABUFX2_insert157 [\internal_register_inst_07.rb_out\_4_] \internal_register_inst_07.rb_out_4_bF$buf1\ d_lut_BUFX2
ABUFX2_insert156 [\internal_register_inst_07.rb_out\_4_] \internal_register_inst_07.rb_out_4_bF$buf2\ d_lut_BUFX2
ABUFX2_insert155 [\internal_register_inst_07.rb_out\_4_] \internal_register_inst_07.rb_out_4_bF$buf3\ d_lut_BUFX2
ABUFX2_insert154 [\internal_register_inst_07.ra_out\_14_] \internal_register_inst_07.ra_out_14_bF$buf0\ d_lut_BUFX2
ABUFX2_insert153 [\internal_register_inst_07.ra_out\_14_] \internal_register_inst_07.ra_out_14_bF$buf1\ d_lut_BUFX2
ABUFX2_insert152 [\internal_register_inst_07.ra_out\_14_] \internal_register_inst_07.ra_out_14_bF$buf2\ d_lut_BUFX2
ABUFX2_insert151 [\internal_register_inst_07.ra_out\_14_] \internal_register_inst_07.ra_out_14_bF$buf3\ d_lut_BUFX2
ABUFX2_insert150 [\internal_register_inst_07.rb_out\_7_] \internal_register_inst_07.rb_out_7_bF$buf0\ d_lut_BUFX2
ABUFX2_insert149 [\internal_register_inst_07.rb_out\_7_] \internal_register_inst_07.rb_out_7_bF$buf1\ d_lut_BUFX2
ABUFX2_insert148 [\internal_register_inst_07.rb_out\_7_] \internal_register_inst_07.rb_out_7_bF$buf2\ d_lut_BUFX2
ABUFX2_insert147 [\internal_register_inst_07.rb_out\_7_] \internal_register_inst_07.rb_out_7_bF$buf3\ d_lut_BUFX2
ABUFX2_insert146 [_1467_] _1467__bF$buf0 d_lut_BUFX2
ABUFX2_insert145 [_1467_] _1467__bF$buf1 d_lut_BUFX2
ABUFX2_insert144 [_1467_] _1467__bF$buf2 d_lut_BUFX2
ABUFX2_insert143 [_1467_] _1467__bF$buf3 d_lut_BUFX2
ABUFX2_insert142 [_1623_] _1623__bF$buf0 d_lut_BUFX2
ABUFX2_insert141 [_1623_] _1623__bF$buf1 d_lut_BUFX2
ABUFX2_insert140 [_1623_] _1623__bF$buf2 d_lut_BUFX2
ABUFX2_insert139 [_1623_] _1623__bF$buf3 d_lut_BUFX2
ABUFX2_insert138 [_1623_] _1623__bF$buf4 d_lut_BUFX2
ABUFX2_insert137 [_1623_] _1623__bF$buf5 d_lut_BUFX2
ABUFX2_insert136 [_1623_] _1623__bF$buf6 d_lut_BUFX2
ABUFX2_insert135 [_1623_] _1623__bF$buf7 d_lut_BUFX2
ABUFX2_insert134 [\control_unit_ints_09.inst_wr\] \control_unit_ints_09.inst_wr_bF$buf0\ d_lut_BUFX2
ABUFX2_insert133 [\control_unit_ints_09.inst_wr\] \control_unit_ints_09.inst_wr_bF$buf1\ d_lut_BUFX2
ABUFX2_insert132 [\control_unit_ints_09.inst_wr\] \control_unit_ints_09.inst_wr_bF$buf2\ d_lut_BUFX2
ABUFX2_insert131 [\control_unit_ints_09.inst_wr\] \control_unit_ints_09.inst_wr_bF$buf3\ d_lut_BUFX2
ABUFX2_insert130 [\control_unit_ints_09.imm_en\] \control_unit_ints_09.imm_en_bF$buf0\ d_lut_BUFX2
ABUFX2_insert129 [\control_unit_ints_09.imm_en\] \control_unit_ints_09.imm_en_bF$buf1\ d_lut_BUFX2
ABUFX2_insert128 [\control_unit_ints_09.imm_en\] \control_unit_ints_09.imm_en_bF$buf2\ d_lut_BUFX2
ABUFX2_insert127 [\control_unit_ints_09.imm_en\] \control_unit_ints_09.imm_en_bF$buf3\ d_lut_BUFX2
ABUFX2_insert126 [_1309_] _1309__bF$buf0 d_lut_BUFX2
ABUFX2_insert125 [_1309_] _1309__bF$buf1 d_lut_BUFX2
ABUFX2_insert124 [_1309_] _1309__bF$buf2 d_lut_BUFX2
ABUFX2_insert123 [_1309_] _1309__bF$buf3 d_lut_BUFX2
ABUFX2_insert122 [\instruction_decoder_inst_08.rAadrs\_1_] \instruction_decoder_inst_08.rAadrs_1_bF$buf0\ d_lut_BUFX2
ABUFX2_insert121 [\instruction_decoder_inst_08.rAadrs\_1_] \instruction_decoder_inst_08.rAadrs_1_bF$buf1\ d_lut_BUFX2
ABUFX2_insert120 [\instruction_decoder_inst_08.rAadrs\_1_] \instruction_decoder_inst_08.rAadrs_1_bF$buf2\ d_lut_BUFX2
ABUFX2_insert119 [\instruction_decoder_inst_08.rAadrs\_1_] \instruction_decoder_inst_08.rAadrs_1_bF$buf3\ d_lut_BUFX2
ABUFX2_insert118 [\instruction_decoder_inst_08.rAadrs\_1_] \instruction_decoder_inst_08.rAadrs_1_bF$buf4\ d_lut_BUFX2
ABUFX2_insert117 [\instruction_decoder_inst_08.rAadrs\_1_] \instruction_decoder_inst_08.rAadrs_1_bF$buf5\ d_lut_BUFX2
ABUFX2_insert116 [\instruction_decoder_inst_08.rAadrs\_1_] \instruction_decoder_inst_08.rAadrs_1_bF$buf6\ d_lut_BUFX2
ABUFX2_insert115 [\instruction_decoder_inst_08.rAadrs\_1_] \instruction_decoder_inst_08.rAadrs_1_bF$buf7\ d_lut_BUFX2
ABUFX2_insert114 [_740_] _740__bF$buf0 d_lut_BUFX2
ABUFX2_insert113 [_740_] _740__bF$buf1 d_lut_BUFX2
ABUFX2_insert112 [_740_] _740__bF$buf2 d_lut_BUFX2
ABUFX2_insert111 [_740_] _740__bF$buf3 d_lut_BUFX2
ABUFX2_insert110 [\internal_register_inst_07.rb_out\_12_] \internal_register_inst_07.rb_out_12_bF$buf0\ d_lut_BUFX2
ABUFX2_insert109 [\internal_register_inst_07.rb_out\_12_] \internal_register_inst_07.rb_out_12_bF$buf1\ d_lut_BUFX2
ABUFX2_insert108 [\internal_register_inst_07.rb_out\_12_] \internal_register_inst_07.rb_out_12_bF$buf2\ d_lut_BUFX2
ABUFX2_insert107 [\internal_register_inst_07.rb_out\_12_] \internal_register_inst_07.rb_out_12_bF$buf3\ d_lut_BUFX2
ABUFX2_insert106 [\internal_register_inst_07.ra_out\_0_] \internal_register_inst_07.ra_out_0_bF$buf0\ d_lut_BUFX2
ABUFX2_insert105 [\internal_register_inst_07.ra_out\_0_] \internal_register_inst_07.ra_out_0_bF$buf1\ d_lut_BUFX2
ABUFX2_insert104 [\internal_register_inst_07.ra_out\_0_] \internal_register_inst_07.ra_out_0_bF$buf2\ d_lut_BUFX2
ABUFX2_insert103 [\internal_register_inst_07.ra_out\_0_] \internal_register_inst_07.ra_out_0_bF$buf3\ d_lut_BUFX2
ABUFX2_insert102 [\internal_register_inst_07.rb_out\_15_] \internal_register_inst_07.rb_out_15_bF$buf0\ d_lut_BUFX2
ABUFX2_insert101 [\internal_register_inst_07.rb_out\_15_] \internal_register_inst_07.rb_out_15_bF$buf1\ d_lut_BUFX2
ABUFX2_insert100 [\internal_register_inst_07.rb_out\_15_] \internal_register_inst_07.rb_out_15_bF$buf2\ d_lut_BUFX2
ABUFX2_insert99 [\internal_register_inst_07.rb_out\_15_] \internal_register_inst_07.rb_out_15_bF$buf3\ d_lut_BUFX2
ABUFX2_insert98 [\internal_register_inst_07.ra_out\_3_] \internal_register_inst_07.ra_out_3_bF$buf0\ d_lut_BUFX2
ABUFX2_insert97 [\internal_register_inst_07.ra_out\_3_] \internal_register_inst_07.ra_out_3_bF$buf1\ d_lut_BUFX2
ABUFX2_insert96 [\internal_register_inst_07.ra_out\_3_] \internal_register_inst_07.ra_out_3_bF$buf2\ d_lut_BUFX2
ABUFX2_insert95 [\internal_register_inst_07.ra_out\_3_] \internal_register_inst_07.ra_out_3_bF$buf3\ d_lut_BUFX2
ABUFX2_insert94 [\internal_register_inst_07.ra_out\_3_] \internal_register_inst_07.ra_out_3_bF$buf4\ d_lut_BUFX2
ABUFX2_insert93 [\instruction_decoder_inst_08.rBadrs\_0_] \instruction_decoder_inst_08.rBadrs_0_bF$buf0\ d_lut_BUFX2
ABUFX2_insert92 [\instruction_decoder_inst_08.rBadrs\_0_] \instruction_decoder_inst_08.rBadrs_0_bF$buf1\ d_lut_BUFX2
ABUFX2_insert91 [\instruction_decoder_inst_08.rBadrs\_0_] \instruction_decoder_inst_08.rBadrs_0_bF$buf2\ d_lut_BUFX2
ABUFX2_insert90 [\instruction_decoder_inst_08.rBadrs\_0_] \instruction_decoder_inst_08.rBadrs_0_bF$buf3\ d_lut_BUFX2
ABUFX2_insert89 [\instruction_decoder_inst_08.rBadrs\_0_] \instruction_decoder_inst_08.rBadrs_0_bF$buf4\ d_lut_BUFX2
ABUFX2_insert88 [\instruction_decoder_inst_08.rBadrs\_0_] \instruction_decoder_inst_08.rBadrs_0_bF$buf5\ d_lut_BUFX2
ABUFX2_insert87 [\instruction_decoder_inst_08.rBadrs\_0_] \instruction_decoder_inst_08.rBadrs_0_bF$buf6\ d_lut_BUFX2
ABUFX2_insert86 [\instruction_decoder_inst_08.rBadrs\_0_] \instruction_decoder_inst_08.rBadrs_0_bF$buf7\ d_lut_BUFX2
ABUFX2_insert85 [\internal_register_inst_07.ra_out\_6_] \internal_register_inst_07.ra_out_6_bF$buf0\ d_lut_BUFX2
ABUFX2_insert84 [\internal_register_inst_07.ra_out\_6_] \internal_register_inst_07.ra_out_6_bF$buf1\ d_lut_BUFX2
ABUFX2_insert83 [\internal_register_inst_07.ra_out\_6_] \internal_register_inst_07.ra_out_6_bF$buf2\ d_lut_BUFX2
ABUFX2_insert82 [\internal_register_inst_07.ra_out\_6_] \internal_register_inst_07.ra_out_6_bF$buf3\ d_lut_BUFX2
ABUFX2_insert81 [\internal_register_inst_07.ra_out\_6_] \internal_register_inst_07.ra_out_6_bF$buf4\ d_lut_BUFX2
ABUFX2_insert80 [\internal_register_inst_07.ra_out\_9_] \internal_register_inst_07.ra_out_9_bF$buf0\ d_lut_BUFX2
ABUFX2_insert79 [\internal_register_inst_07.ra_out\_9_] \internal_register_inst_07.ra_out_9_bF$buf1\ d_lut_BUFX2
ABUFX2_insert78 [\internal_register_inst_07.ra_out\_9_] \internal_register_inst_07.ra_out_9_bF$buf2\ d_lut_BUFX2
ABUFX2_insert77 [\internal_register_inst_07.ra_out\_9_] \internal_register_inst_07.ra_out_9_bF$buf3\ d_lut_BUFX2
ABUFX2_insert76 [\internal_register_inst_07.ra_out\_9_] \internal_register_inst_07.ra_out_9_bF$buf4\ d_lut_BUFX2
ABUFX2_insert75 [\internal_register_inst_07.rb_out\_2_] \internal_register_inst_07.rb_out_2_bF$buf0\ d_lut_BUFX2
ABUFX2_insert74 [\internal_register_inst_07.rb_out\_2_] \internal_register_inst_07.rb_out_2_bF$buf1\ d_lut_BUFX2
ABUFX2_insert73 [\internal_register_inst_07.rb_out\_2_] \internal_register_inst_07.rb_out_2_bF$buf2\ d_lut_BUFX2
ABUFX2_insert72 [\internal_register_inst_07.rb_out\_2_] \internal_register_inst_07.rb_out_2_bF$buf3\ d_lut_BUFX2
ABUFX2_insert71 [_1594_] _1594__bF$buf0 d_lut_BUFX2
ABUFX2_insert70 [_1594_] _1594__bF$buf1 d_lut_BUFX2
ABUFX2_insert69 [_1594_] _1594__bF$buf2 d_lut_BUFX2
ABUFX2_insert68 [_1594_] _1594__bF$buf3 d_lut_BUFX2
ABUFX2_insert67 [_1594_] _1594__bF$buf4 d_lut_BUFX2
ABUFX2_insert66 [_755_] _755__bF$buf0 d_lut_BUFX2
ABUFX2_insert65 [_755_] _755__bF$buf1 d_lut_BUFX2
ABUFX2_insert64 [_755_] _755__bF$buf2 d_lut_BUFX2
ABUFX2_insert63 [_755_] _755__bF$buf3 d_lut_BUFX2
ABUFX2_insert62 [\internal_register_inst_07.ra_out\_12_] \internal_register_inst_07.ra_out_12_bF$buf0\ d_lut_BUFX2
ABUFX2_insert61 [\internal_register_inst_07.ra_out\_12_] \internal_register_inst_07.ra_out_12_bF$buf1\ d_lut_BUFX2
ABUFX2_insert60 [\internal_register_inst_07.ra_out\_12_] \internal_register_inst_07.ra_out_12_bF$buf2\ d_lut_BUFX2
ABUFX2_insert59 [\internal_register_inst_07.ra_out\_12_] \internal_register_inst_07.ra_out_12_bF$buf3\ d_lut_BUFX2
ABUFX2_insert58 [\internal_register_inst_07.rb_out\_5_] \internal_register_inst_07.rb_out_5_bF$buf0\ d_lut_BUFX2
ABUFX2_insert57 [\internal_register_inst_07.rb_out\_5_] \internal_register_inst_07.rb_out_5_bF$buf1\ d_lut_BUFX2
ABUFX2_insert56 [\internal_register_inst_07.rb_out\_5_] \internal_register_inst_07.rb_out_5_bF$buf2\ d_lut_BUFX2
ABUFX2_insert55 [\internal_register_inst_07.rb_out\_5_] \internal_register_inst_07.rb_out_5_bF$buf3\ d_lut_BUFX2
ABUFX2_insert54 [\internal_register_inst_07.rb_out\_5_] \internal_register_inst_07.rb_out_5_bF$buf4\ d_lut_BUFX2
ABUFX2_insert53 [_1559_] _1559__bF$buf0 d_lut_BUFX2
ABUFX2_insert52 [_1559_] _1559__bF$buf1 d_lut_BUFX2
ABUFX2_insert51 [_1559_] _1559__bF$buf2 d_lut_BUFX2
ABUFX2_insert50 [_1559_] _1559__bF$buf3 d_lut_BUFX2
ABUFX2_insert49 [_1559_] _1559__bF$buf4 d_lut_BUFX2
ABUFX2_insert48 [\internal_register_inst_07.ra_out\_15_] \internal_register_inst_07.ra_out_15_bF$buf0\ d_lut_BUFX2
ABUFX2_insert47 [\internal_register_inst_07.ra_out\_15_] \internal_register_inst_07.ra_out_15_bF$buf1\ d_lut_BUFX2
ABUFX2_insert46 [\internal_register_inst_07.ra_out\_15_] \internal_register_inst_07.ra_out_15_bF$buf2\ d_lut_BUFX2
ABUFX2_insert45 [\internal_register_inst_07.ra_out\_15_] \internal_register_inst_07.ra_out_15_bF$buf3\ d_lut_BUFX2
ABUFX2_insert44 [\internal_register_inst_07.rb_out\_8_] \internal_register_inst_07.rb_out_8_bF$buf0\ d_lut_BUFX2
ABUFX2_insert43 [\internal_register_inst_07.rb_out\_8_] \internal_register_inst_07.rb_out_8_bF$buf1\ d_lut_BUFX2
ABUFX2_insert42 [\internal_register_inst_07.rb_out\_8_] \internal_register_inst_07.rb_out_8_bF$buf2\ d_lut_BUFX2
ABUFX2_insert41 [\internal_register_inst_07.rb_out\_8_] \internal_register_inst_07.rb_out_8_bF$buf3\ d_lut_BUFX2
ABUFX2_insert40 [_1524_] _1524__bF$buf0 d_lut_BUFX2
ABUFX2_insert39 [_1524_] _1524__bF$buf1 d_lut_BUFX2
ABUFX2_insert38 [_1524_] _1524__bF$buf2 d_lut_BUFX2
ABUFX2_insert37 [_1524_] _1524__bF$buf3 d_lut_BUFX2
ABUFX2_insert36 [_1524_] _1524__bF$buf4 d_lut_BUFX2
ACLKBUF1_insert35 [clock] clock_bF$buf0 d_lut_CLKBUF1
ACLKBUF1_insert34 [clock] clock_bF$buf1 d_lut_CLKBUF1
ACLKBUF1_insert33 [clock] clock_bF$buf2 d_lut_CLKBUF1
ACLKBUF1_insert32 [clock] clock_bF$buf3 d_lut_CLKBUF1
ACLKBUF1_insert31 [clock] clock_bF$buf4 d_lut_CLKBUF1
ACLKBUF1_insert30 [clock] clock_bF$buf5 d_lut_CLKBUF1
ACLKBUF1_insert29 [clock] clock_bF$buf6 d_lut_CLKBUF1
ACLKBUF1_insert28 [clock] clock_bF$buf7 d_lut_CLKBUF1
ACLKBUF1_insert27 [clock] clock_bF$buf8 d_lut_CLKBUF1
ACLKBUF1_insert26 [clock] clock_bF$buf9 d_lut_CLKBUF1
ACLKBUF1_insert25 [clock] clock_bF$buf10 d_lut_CLKBUF1
ACLKBUF1_insert24 [clock] clock_bF$buf11 d_lut_CLKBUF1
ACLKBUF1_insert23 [clock] clock_bF$buf12 d_lut_CLKBUF1
ACLKBUF1_insert22 [clock] clock_bF$buf13 d_lut_CLKBUF1
ABUFX2_insert21 [_1310_] _1310__bF$buf0 d_lut_BUFX2
ABUFX2_insert20 [_1310_] _1310__bF$buf1 d_lut_BUFX2
ABUFX2_insert19 [_1310_] _1310__bF$buf2 d_lut_BUFX2
ABUFX2_insert18 [_1310_] _1310__bF$buf3 d_lut_BUFX2
ABUFX2_insert17 [\internal_register_inst_07.rb_out\_10_] \internal_register_inst_07.rb_out_10_bF$buf0\ d_lut_BUFX2
ABUFX2_insert16 [\internal_register_inst_07.rb_out\_10_] \internal_register_inst_07.rb_out_10_bF$buf1\ d_lut_BUFX2
ABUFX2_insert15 [\internal_register_inst_07.rb_out\_10_] \internal_register_inst_07.rb_out_10_bF$buf2\ d_lut_BUFX2
ABUFX2_insert14 [\internal_register_inst_07.rb_out\_10_] \internal_register_inst_07.rb_out_10_bF$buf3\ d_lut_BUFX2
ABUFX2_insert13 [_1577_] _1577__bF$buf0 d_lut_BUFX2
ABUFX2_insert12 [_1577_] _1577__bF$buf1 d_lut_BUFX2
ABUFX2_insert11 [_1577_] _1577__bF$buf2 d_lut_BUFX2
ABUFX2_insert10 [_1577_] _1577__bF$buf3 d_lut_BUFX2
ABUFX2_insert9 [_1577_] _1577__bF$buf4 d_lut_BUFX2
ABUFX2_insert8 [_1542_] _1542__bF$buf0 d_lut_BUFX2
ABUFX2_insert7 [_1542_] _1542__bF$buf1 d_lut_BUFX2
ABUFX2_insert6 [_1542_] _1542__bF$buf2 d_lut_BUFX2
ABUFX2_insert5 [_1542_] _1542__bF$buf3 d_lut_BUFX2
ABUFX2_insert4 [_1542_] _1542__bF$buf4 d_lut_BUFX2
ABUFX2_insert3 [\internal_register_inst_07.rb_out\_13_] \internal_register_inst_07.rb_out_13_bF$buf0\ d_lut_BUFX2
ABUFX2_insert2 [\internal_register_inst_07.rb_out\_13_] \internal_register_inst_07.rb_out_13_bF$buf1\ d_lut_BUFX2
ABUFX2_insert1 [\internal_register_inst_07.rb_out\_13_] \internal_register_inst_07.rb_out_13_bF$buf2\ d_lut_BUFX2
ABUFX2_insert0 [\internal_register_inst_07.rb_out\_13_] \internal_register_inst_07.rb_out_13_bF$buf3\ d_lut_BUFX2
A_2080_ [_0__0_] adrs_bus_0_ d_lut_BUFX2
A_2081_ [_0__1_] adrs_bus_1_ d_lut_BUFX2
A_2082_ [_0__10_] adrs_bus_10_ d_lut_BUFX2
A_2083_ [_0__11_] adrs_bus_11_ d_lut_BUFX2
A_2084_ [_0__12_] adrs_bus_12_ d_lut_BUFX2
A_2085_ [_0__13_] adrs_bus_13_ d_lut_BUFX2
A_2086_ [_0__14_] adrs_bus_14_ d_lut_BUFX2
A_2087_ [_0__15_] adrs_bus_15_ d_lut_BUFX2
A_2088_ [_0__2_] adrs_bus_2_ d_lut_BUFX2
A_2089_ [_0__3_] adrs_bus_3_ d_lut_BUFX2
A_2090_ [_0__4_] adrs_bus_4_ d_lut_BUFX2
A_2091_ [_0__5_] adrs_bus_5_ d_lut_BUFX2
A_2092_ [_0__6_] adrs_bus_6_ d_lut_BUFX2
A_2093_ [_0__7_] adrs_bus_7_ d_lut_BUFX2
A_2094_ [_0__8_] adrs_bus_8_ d_lut_BUFX2
A_2095_ [_0__9_] adrs_bus_9_ d_lut_BUFX2
A_2096_ [\internal_register_inst_07.rb_out_0_bF$buf3\] data_out_0_ d_lut_BUFX2
A_2097_ [\internal_register_inst_07.rb_out_1_bF$buf3\] data_out_1_ d_lut_BUFX2
A_2098_ [\internal_register_inst_07.rb_out_10_bF$buf3\] data_out_10_ d_lut_BUFX2
A_2099_ [\internal_register_inst_07.rb_out_11_bF$buf4\] data_out_11_ d_lut_BUFX2
A_2100_ [\internal_register_inst_07.rb_out_12_bF$buf3\] data_out_12_ d_lut_BUFX2
A_2101_ [\internal_register_inst_07.rb_out_13_bF$buf3\] data_out_13_ d_lut_BUFX2
A_2102_ [\internal_register_inst_07.rb_out_14_bF$buf3\] data_out_14_ d_lut_BUFX2
A_2103_ [\internal_register_inst_07.rb_out_15_bF$buf3\] data_out_15_ d_lut_BUFX2
A_2104_ [\internal_register_inst_07.rb_out_2_bF$buf3\] data_out_2_ d_lut_BUFX2
A_2105_ [\internal_register_inst_07.rb_out_3_bF$buf3\] data_out_3_ d_lut_BUFX2